OpenDSS/ckt5_VLN_Node.Txt

LINE-GROUND and LINE-LINE VOLTAGES BY BUS & NODE

Bus                            Node    VLN (kV)   Angle      pu     Base kV    Node-Node   VLL (kV)  Angle      pu

SOURCEBUS .................... 1       69.715 /_    0.0      1.05   115.000        1-2     120.75 /_   30.0      1.05
   -                           2       69.715 /_ -120.0      1.05   115.000        2-3     120.75 /_  -90.0      1.05
   -                           3       69.715 /_  120.0      1.05   115.000        3-1     120.75 /_  150.0      1.05
_MDV_SUB_1_LSB ............... 1       7.3601 /_  -32.6    1.0223    12.470        1-2     12.755 /_   -2.7    1.0228
   -                           2        7.349 /_ -152.8    1.0208    12.470        2-3     12.726 /_ -122.6    1.0205
   -                           3       7.3687 /_   87.5    1.0235    12.470        3-1     12.759 /_  117.4    1.0232
MDV201 ....................... 1       7.3601 /_  -32.6    1.0223    12.470        1-2     12.755 /_   -2.7    1.0228
   -                           2        7.349 /_ -152.8    1.0208    12.470        2-3     12.726 /_ -122.6    1.0205
   -                           3       7.3687 /_   87.5    1.0235    12.470        3-1     12.759 /_  117.4    1.0232
94743 ........................ 1       7.1474 /_  -33.3   0.99275    12.470
94744 ........................ 1       7.1473 /_  -33.3   0.99274    12.470
62244 ........................ 3       7.2168 /_   86.2    1.0024    12.470
62235 ........................ 3        7.216 /_   86.2    1.0023    12.470
1144235 ...................... 1       7.1842 /_  -33.8   0.99786    12.470
1144234 ...................... 1       7.1838 /_  -33.8   0.99781    12.470
39754 ........................ 2       7.0187 /_ -154.4   0.97488    12.470
MDV201_1160486ELB_INT ........ 2       7.0187 /_ -154.4   0.97488    12.470
1160486 ...................... 2       7.0187 /_ -154.4   0.97488    12.470
1160476 ...................... 2       7.0236 /_ -154.4   0.97556    12.470
1160473 ...................... 2       7.0225 /_ -154.4   0.97541    12.470
8163 ......................... 1       7.2369 /_  -33.5    1.0052    12.470        1-2     12.542 /_   -3.6    1.0058
   -                           2       7.2316 /_ -153.7    1.0045    12.470        2-3     12.539 /_ -123.7    1.0055
   -                           3       7.2414 /_   86.3    1.0058    12.470        3-1     12.522 /_  116.4    1.0041
8164 ......................... 1       7.2344 /_  -33.5    1.0048    12.470        1-2     12.537 /_   -3.6    1.0054
   -                           2       7.2298 /_ -153.7    1.0042    12.470        2-3     12.534 /_ -123.7    1.0051
   -                           3       7.2354 /_   86.2     1.005    12.470        3-1     12.514 /_  116.4    1.0035
103730 ....................... 2       7.1202 /_ -154.3   0.98898    12.470
39610 ........................ 2       7.1202 /_ -154.3   0.98897    12.470
835 .......................... 1       7.2889 /_  -33.0    1.0124    12.470
842 .......................... 1       7.2881 /_  -33.0    1.0123    12.470
39775 ........................ 2       7.0258 /_ -154.4   0.97587    12.470
39760 ........................ 2       7.0254 /_ -154.4   0.97581    12.470
15004 ........................ 2       7.0214 /_ -154.4   0.97525    12.470
MDV201_1160480ELB_INT ........ 2       7.0214 /_ -154.4   0.97525    12.470
1160480 ...................... 2       7.0214 /_ -154.4   0.97525    12.470
1160492 ...................... 1       7.1655 /_  -33.3   0.99527    12.470
MDV201_8088ELB_INT ........... 1       7.1655 /_  -33.3   0.99526    12.470
8088 ......................... 1       7.1655 /_  -33.3   0.99526    12.470
829 .......................... 1       7.2137 /_  -33.3     1.002    12.470        1-2     12.526 /_   -3.7    1.0045
   -                           2       7.1975 /_ -154.1   0.99971    12.470        2-3     12.519 /_ -123.6    1.0039
   -                           3       7.2919 /_   86.4    1.0128    12.470        3-1     12.545 /_  116.4     1.006
834 .......................... 1       7.2058 /_  -33.3    1.0009    12.470        1-2     12.512 /_   -3.7    1.0034
   -                           2       7.1877 /_ -154.1   0.99836    12.470        2-3     12.505 /_ -123.6    1.0028
   -                           3       7.2868 /_   86.4    1.0121    12.470        3-1     12.533 /_  116.3    1.0051
15005 ........................ 2         7.02 /_ -154.4   0.97507    12.470
MDV201_1160478ELB_INT ........ 2         7.02 /_ -154.4   0.97506    12.470
1160478 ...................... 2         7.02 /_ -154.4   0.97506    12.470
44582 ........................ 1        7.241 /_  -33.4    1.0058    12.470        1-2     12.552 /_   -3.5    1.0066
   -                           2       7.2353 /_ -153.7     1.005    12.470        2-3     12.547 /_ -123.6    1.0062
   -                           3       7.2527 /_   86.3    1.0074    12.470        3-1     12.536 /_  116.4    1.0053
8160 ......................... 1       7.2403 /_  -33.4    1.0057    12.470        1-2     12.551 /_   -3.6    1.0065
   -                           2       7.2346 /_ -153.7    1.0049    12.470        2-3     12.546 /_ -123.6    1.0061
   -                           3       7.2506 /_   86.3    1.0071    12.470        3-1     12.533 /_  116.4    1.0051
89783 ........................ 3       7.1989 /_   86.1    0.9999    12.470
89791 ........................ 3       7.1978 /_   86.1   0.99975    12.470
6584 ......................... 1       7.1871 /_  -33.8   0.99827    12.470        1-2     12.477 /_   -3.7    1.0006
   -                           2       7.2228 /_ -153.7    1.0032    12.470        2-3     12.499 /_ -123.8    1.0024
   -                           3       7.2032 /_   86.2    1.0005    12.470        3-1     12.458 /_  116.2   0.99905
99422 ........................ 1       7.1871 /_  -33.8   0.99827    12.470
8113 ......................... 1        7.231 /_  -33.3    1.0044    12.470        1-2     12.559 /_   -3.7    1.0071
   -                           2       7.2248 /_ -154.0    1.0035    12.470        2-3     12.552 /_ -123.6    1.0066
   -                           3       7.3002 /_   86.5     1.014    12.470        3-1     12.571 /_  116.4    1.0081
8124 ......................... 1       7.2298 /_  -33.3    1.0042    12.470        1-2     12.558 /_   -3.7    1.0071
   -                           2       7.2251 /_ -154.0    1.0035    12.470        2-3     12.552 /_ -123.6    1.0066
   -                           3       7.2995 /_   86.5    1.0139    12.470        3-1     12.569 /_  116.4     1.008
14880 ........................ 1       7.2394 /_  -33.2    1.0055    12.470        1-2     12.562 /_   -3.7    1.0074
   -                           2       7.2044 /_ -154.1    1.0007    12.470        2-3     12.541 /_ -123.6    1.0057
   -                           3       7.3104 /_   86.4    1.0154    12.470        3-1     12.575 /_  116.4    1.0084
63707 ........................ 1       7.2386 /_  -33.2    1.0054    12.470        1-2      12.56 /_   -3.7    1.0072
   -                           2       7.2007 /_ -154.1    1.0002    12.470        2-3     12.538 /_ -123.6    1.0055
   -                           3       7.3115 /_   86.4    1.0155    12.470        3-1     12.574 /_  116.4    1.0084
74449 ........................ 3        7.147 /_   85.9    0.9927    12.470
74450 ........................ 3       7.1469 /_   85.9   0.99268    12.470
14989 ........................ 2       7.0831 /_ -154.4   0.98382    12.470
100494 ....................... 2       7.0831 /_ -154.4   0.98382    12.470
63683 ........................ 1       7.2473 /_  -33.3    1.0066    12.470
   -                           3       7.3078 /_   86.5     1.015    12.470        3-1     12.591 /_  116.5    1.0097
107110 ....................... 1       7.2473 /_  -33.3    1.0066    12.470
   -                           3       7.3078 /_   86.5     1.015    12.470        3-1     12.591 /_  116.5    1.0097
1144242 ...................... 3       7.2991 /_   86.5    1.0138    12.470
8121 ......................... 3       7.2986 /_   86.5    1.0138    12.470
63668 ........................ 3       7.2736 /_   86.3    1.0103    12.470
63671 ........................ 3       7.2729 /_   86.3    1.0102    12.470
89784 ........................ 3       7.2041 /_   86.1    1.0006    12.470
89781 ........................ 3        7.202 /_   86.1    1.0003    12.470
39734 ........................ 1       7.1594 /_  -33.9   0.99443    12.470
39751 ........................ 1       7.1589 /_  -33.9   0.99435    12.470
63657 ........................ 1       7.2679 /_  -33.2    1.0095    12.470        1-2     12.611 /_   -3.4    1.0113
   -                           2       7.2567 /_ -153.7    1.0079    12.470        2-3     12.599 /_ -123.4    1.0103
   -                           3       7.3151 /_   86.7     1.016    12.470        3-1     12.618 /_  116.6    1.0119
63658 ........................ 1       7.2646 /_  -33.2     1.009    12.470        1-2     12.606 /_   -3.5    1.0109
   -                           2       7.2528 /_ -153.7    1.0074    12.470        2-3     12.594 /_ -123.4    1.0099
   -                           3       7.3148 /_   86.6     1.016    12.470        3-1     12.614 /_  116.6    1.0115
74445 ........................ 2       7.1974 /_ -153.8    0.9997    12.470
74448 ........................ 2       7.1959 /_ -153.8   0.99949    12.470
1012641 ...................... 3       7.2491 /_   86.3    1.0069    12.470
1012643 ...................... 3       7.2491 /_   86.3    1.0069    12.470
39570 ........................ 1        7.148 /_  -33.3   0.99284    12.470
39569 ........................ 1       7.1479 /_  -33.3   0.99282    12.470
14858 ........................ 1       7.2479 /_  -33.3    1.0067    12.470
14869 ........................ 1       7.2479 /_  -33.3    1.0067    12.470
89796 ........................ 3       7.2548 /_   86.2    1.0077    12.470
89790 ........................ 3       7.2547 /_   86.2    1.0077    12.470
28271 ........................ 3        7.318 /_   86.3    1.0164    12.470
28272 ........................ 3       7.3178 /_   86.3    1.0164    12.470
69478 ........................ 1       7.1629 /_  -33.3   0.99491    12.470        1-2     12.442 /_   -3.9   0.99776
   -                           2       7.1333 /_ -154.3    0.9908    12.470        2-3     12.442 /_ -123.6   0.99774
   -                           3       7.2809 /_   86.3    1.0113    12.470        3-1     12.488 /_  116.2    1.0014
69477 ........................ 1       7.1629 /_  -33.3   0.99491    12.470        1-2     12.442 /_   -3.9   0.99776
   -                           2       7.1333 /_ -154.3    0.9908    12.470        2-3     12.442 /_ -123.6   0.99774
   -                           3       7.2809 /_   86.3    1.0113    12.470        3-1     12.488 /_  116.2    1.0014
8175 ......................... 3        7.196 /_   86.1   0.99951    12.470
8176 ......................... 3       7.1959 /_   86.1   0.99949    12.470
8184 ......................... 1       7.2348 /_  -33.1    1.0049    12.470        1-2     12.551 /_   -3.8    1.0065
   -                           2       7.1818 /_ -154.2   0.99754    12.470        2-3     12.522 /_ -123.6    1.0042
   -                           3       7.3175 /_   86.4    1.0164    12.470        3-1     12.571 /_  116.4    1.0081
1144230 ...................... 1       7.2348 /_  -33.1    1.0049    12.470
39595 ........................ 1       7.1556 /_  -33.3    0.9939    12.470        1-2     12.424 /_   -3.9   0.99629
   -                           2       7.1151 /_ -154.4   0.98827    12.470        2-3     12.422 /_ -123.6   0.99612
   -                           3       7.2769 /_   86.3    1.0107    12.470        3-1     12.475 /_  116.2    1.0004
39582 ........................ 1       7.1539 /_  -33.3   0.99366    12.470        1-2     12.419 /_   -3.9   0.99591
   -                           2       7.1098 /_ -154.4   0.98754    12.470        2-3     12.416 /_ -123.6   0.99567
   -                           3       7.2759 /_   86.3    1.0106    12.470        3-1     12.472 /_  116.2    1.0001
46385 ........................ 2       7.1916 /_ -153.8   0.99889    12.470
46386 ........................ 2       7.1907 /_ -153.8   0.99877    12.470
106884 ....................... 3       7.2174 /_   86.2    1.0025    12.470
1160493 ...................... 1       7.1684 /_  -33.3   0.99567    12.470
MDV201_8075ELB_INT ........... 1       7.1684 /_  -33.3   0.99567    12.470
8075 ......................... 1       7.1684 /_  -33.3   0.99567    12.470
69460 ........................ 1        7.165 /_  -33.3    0.9952    12.470
MDV201_107997ELB_INT ......... 1        7.165 /_  -33.3    0.9952    12.470
107997 ....................... 1        7.165 /_  -33.3    0.9952    12.470
8180 ......................... 3       7.1958 /_   86.1   0.99948    12.470
1160461 ...................... 1       7.1776 /_  -33.3   0.99695    12.470
8100 ......................... 1       7.1761 /_  -33.3   0.99674    12.470
39776 ........................ 3       7.2318 /_   86.2    1.0045    12.470
33824 ........................ 3       7.2312 /_   86.2    1.0044    12.470
1140227 ...................... 1       7.2404 /_  -33.2    1.0057    12.470
14873 ........................ 1       7.2403 /_  -33.2    1.0057    12.470
1160488 ...................... 2       7.2246 /_ -153.7    1.0035    12.470
MDV201_62249ELB_INT .......... 2       7.2246 /_ -153.7    1.0035    12.470
62249 ........................ 2       7.2246 /_ -153.7    1.0035    12.470
107106 ....................... 2       7.2364 /_ -153.8    1.0051    12.470
63634 ........................ 2       7.2353 /_ -153.8     1.005    12.470
1160494 ...................... 1       7.1683 /_  -33.3   0.99566    12.470
1160467 ...................... 1       7.1678 /_  -33.3   0.99559    12.470
8185 ......................... 1       7.2347 /_  -33.1    1.0049    12.470
796 .......................... 1       7.3538 /_  -32.6    1.0214    12.470        1-2     12.745 /_   -2.8     1.022
   -                           2        7.343 /_ -152.9    1.0199    12.470        2-3     12.717 /_ -122.7    1.0198
   -                           3       7.3645 /_   87.4    1.0229    12.470        3-1     12.749 /_  117.4    1.0224
791 .......................... 1       7.3469 /_  -32.6    1.0205    12.470        1-2     12.734 /_   -2.8    1.0212
   -                           2       7.3366 /_ -152.9     1.019    12.470        2-3     12.708 /_ -122.7    1.0191
   -                           3       7.3604 /_   87.4    1.0223    12.470        3-1     12.739 /_  117.3    1.0216
62306 ........................ 3       7.1992 /_   86.1   0.99995    12.470
62303 ........................ 3       7.1989 /_   86.1    0.9999    12.470
14839 ........................ 3       7.3149 /_   86.3     1.016    12.470
100478 ....................... 3       7.3149 /_   86.3     1.016    12.470
58441 ........................ 1       7.1544 /_  -33.3   0.99372    12.470        1-2     12.411 /_   -3.9    0.9953
   -                           2       7.1042 /_ -154.3   0.98676    12.470        2-3     12.401 /_ -123.7   0.99448
   -                           3       7.2572 /_   86.2     1.008    12.470        3-1     12.453 /_  116.2   0.99863
58446 ........................ 1       7.1544 /_  -33.3   0.99372    12.470        1-2     12.411 /_   -3.9   0.99527
   -                           2       7.1041 /_ -154.3   0.98674    12.470        2-3     12.401 /_ -123.7   0.99443
   -                           3       7.2563 /_   86.2    1.0079    12.470        3-1     12.452 /_  116.2   0.99856
112112 ....................... 2       7.1065 /_ -154.4   0.98708    12.470
52515 ........................ 2       7.1061 /_ -154.4   0.98702    12.470
846 .......................... 1       7.2269 /_  -33.3    1.0038    12.470        1-2     12.556 /_   -3.7    1.0069
   -                           2       7.2259 /_ -154.0    1.0037    12.470        2-3     12.552 /_ -123.6    1.0066
   -                           3       7.2992 /_   86.5    1.0138    12.470        3-1     12.568 /_  116.4    1.0078
98795 ........................ 1       7.2269 /_  -33.3    1.0038    12.470        1-2     12.556 /_   -3.7    1.0069
   -                           2       7.2259 /_ -154.0    1.0037    12.470        2-3     12.552 /_ -123.6    1.0066
   -                           3       7.2992 /_   86.5    1.0138    12.470        3-1     12.568 /_  116.4    1.0078
39623 ........................ 2        7.155 /_ -154.2   0.99381    12.470
39602 ........................ 2       7.1545 /_ -154.2   0.99375    12.470
56777 ........................ 1       7.1795 /_  -33.8   0.99721    12.470        1-2     12.466 /_   -3.7    0.9997
   -                           2       7.2185 /_ -153.8    1.0026    12.470        2-3     12.491 /_ -123.9    1.0017
   -                           3       7.1976 /_   86.1   0.99972    12.470        3-1     12.447 /_  116.1   0.99818
56778 ........................ 1       7.1798 /_  -33.8   0.99725    12.470        1-2     12.465 /_   -3.7   0.99959
   -                           2       7.2159 /_ -153.8    1.0023    12.470        2-3     12.488 /_ -123.9    1.0015
   -                           3       7.1961 /_   86.1   0.99952    12.470        3-1     12.445 /_  116.1     0.998
44586 ........................ 1       7.2279 /_  -33.5    1.0039    12.470        1-2     12.523 /_   -3.6    1.0043
   -                           2       7.2256 /_ -153.6    1.0036    12.470        2-3     12.522 /_ -123.8    1.0042
   -                           3       7.2202 /_   86.2    1.0029    12.470        3-1     12.494 /_  116.3     1.002
62239 ........................ 1       7.2264 /_  -33.6    1.0037    12.470        1-2     12.521 /_   -3.6    1.0041
   -                           2       7.2253 /_ -153.6    1.0036    12.470        2-3     12.521 /_ -123.8    1.0041
   -                           3       7.2193 /_   86.2    1.0027    12.470        3-1     12.493 /_  116.3    1.0018
46394 ........................ 1       7.1818 /_  -33.8   0.99753    12.470        1-2     12.459 /_   -3.7   0.99913
   -                           2        7.205 /_ -153.8    1.0008    12.470        2-3     12.476 /_ -123.9    1.0005
   -                           3       7.1884 /_   86.0   0.99845    12.470        3-1     12.434 /_  116.1   0.99711
46393 ........................ 1       7.1818 /_  -33.8   0.99753    12.470        1-2     12.459 /_   -3.7   0.99913
   -                           2        7.205 /_ -153.8    1.0008    12.470        2-3     12.476 /_ -123.9    1.0005
   -                           3       7.1884 /_   86.0   0.99845    12.470        3-1     12.434 /_  116.1   0.99711
1144254 ...................... 2        7.244 /_ -153.7    1.0062    12.470
28246 ........................ 2       7.2439 /_ -153.7    1.0062    12.470
14996 ........................ 2        7.028 /_ -154.4   0.97617    12.470
39771 ........................ 2       7.0278 /_ -154.4   0.97614    12.470
74432 ........................ 1       7.1805 /_  -33.8   0.99735    12.470
108776 ....................... 1       7.1805 /_  -33.8   0.99735    12.470
1160489 ...................... 1       7.2922 /_  -33.0    1.0129    12.470
MDV201_795ELB_INT ............ 1       7.2922 /_  -33.0    1.0129    12.470
795 .......................... 1       7.2922 /_  -33.0    1.0129    12.470
14879 ........................ 1       7.2404 /_  -33.2    1.0057    12.470        1-2     12.565 /_   -3.7    1.0076
   -                           2       7.2088 /_ -154.0    1.0013    12.470        2-3     12.545 /_ -123.6     1.006
   -                           3       7.3091 /_   86.4    1.0152    12.470        3-1     12.576 /_  116.4    1.0085
8099 ......................... 3       7.3005 /_   86.5     1.014    12.470
8103 ......................... 3          7.3 /_   86.5     1.014    12.470
1000983 ...................... 1       7.1793 /_  -33.8   0.99718    12.470
56768 ........................ 1       7.1778 /_  -33.8   0.99698    12.470
62265 ........................ 1       7.2141 /_  -33.6     1.002    12.470        1-2     12.507 /_   -3.6     1.003
   -                           2       7.2238 /_ -153.7    1.0034    12.470        2-3     12.514 /_ -123.8    1.0035
   -                           3       7.2141 /_   86.2     1.002    12.470        3-1     12.481 /_  116.3    1.0009
62262 ........................ 1       7.2109 /_  -33.6    1.0016    12.470        1-2     12.504 /_   -3.6    1.0027
   -                           2       7.2238 /_ -153.7    1.0034    12.470        2-3     12.512 /_ -123.8    1.0034
   -                           3       7.2129 /_   86.2    1.0018    12.470        3-1     12.479 /_  116.3    1.0007
39752 ........................ 2       7.0276 /_ -154.4   0.97611    12.470
1017350 ...................... 2       7.0263 /_ -154.4   0.97594    12.470
1017348 ...................... 2       7.0256 /_ -154.4   0.97583    12.470
56760 ........................ 1       7.1823 /_  -33.8   0.99761    12.470
56764 ........................ 1       7.1819 /_  -33.8   0.99754    12.470
39620 ........................ 2       7.1618 /_ -154.2   0.99476    12.470
39617 ........................ 2       7.1614 /_ -154.2    0.9947    12.470
39589 ........................ 1       7.1514 /_  -33.3   0.99331    12.470
39580 ........................ 1       7.1513 /_  -33.3    0.9933    12.470
74446 ........................ 3       7.1463 /_   85.9   0.99261    12.470
74440 ........................ 3        7.146 /_   85.9   0.99256    12.470
58430 ........................ 1       7.1835 /_  -33.8   0.99777    12.470        1-2     12.458 /_   -3.7   0.99907
   -                           2       7.2042 /_ -153.8    1.0007    12.470        2-3     12.475 /_ -123.9    1.0004
   -                           3       7.1842 /_   86.0   0.99786    12.470        3-1      12.43 /_  116.1   0.99681
58429 ........................ 1       7.1842 /_  -33.8   0.99786    12.470        1-2     12.458 /_   -3.7   0.99904
   -                           2       7.2039 /_ -153.8    1.0006    12.470        2-3     12.475 /_ -123.9    1.0004
   -                           3       7.1825 /_   86.0   0.99763    12.470        3-1     12.429 /_  116.1   0.99668
28213 ........................ 1       7.2233 /_  -33.3    1.0033    12.470
21655 ........................ 1       7.2218 /_  -33.3    1.0031    12.470
63666 ........................ 1        7.245 /_  -33.3    1.0063    12.470
   -                           3       7.3062 /_   86.5    1.0148    12.470        3-1     12.588 /_  116.5    1.0095
28249 ........................ 1        7.243 /_  -33.3     1.006    12.470
   -                           3       7.3058 /_   86.5    1.0148    12.470        3-1     12.587 /_  116.5    1.0094
105409 ....................... 1       7.2424 /_  -33.2     1.006    12.470        1-2     12.569 /_   -3.7    1.0079
   -                           2       7.2155 /_ -154.0    1.0022    12.470        2-3     12.551 /_ -123.6    1.0065
   -                           3        7.307 /_   86.4    1.0149    12.470        3-1     12.578 /_  116.5    1.0086
52524 ........................ 1       7.2416 /_  -33.2    1.0058    12.470        1-2     12.567 /_   -3.7    1.0078
   -                           2        7.213 /_ -154.0    1.0019    12.470        2-3     12.549 /_ -123.6    1.0063
   -                           3       7.3078 /_   86.4     1.015    12.470        3-1     12.577 /_  116.4    1.0086
74424 ........................ 1       7.1615 /_  -33.9   0.99472    12.470
39733 ........................ 1       7.1603 /_  -33.9   0.99455    12.470
8111 ......................... 1       7.2322 /_  -33.3    1.0045    12.470        1-2      12.56 /_   -3.7    1.0072
   -                           2       7.2245 /_ -154.0    1.0035    12.470        2-3     12.553 /_ -123.6    1.0066
   -                           3       7.3009 /_   86.5    1.0141    12.470        3-1     12.572 /_  116.4    1.0082
836 .......................... 2       7.1613 /_ -154.2   0.99469    12.470
837 .......................... 2       7.1598 /_ -154.2   0.99448    12.470
1023346 ...................... 1       7.3544 /_  -32.6    1.0215    12.470        1-2     12.746 /_   -2.8    1.0221
   -                           2       7.3436 /_ -152.9      1.02    12.470        2-3     12.718 /_ -122.7    1.0199
   -                           3        7.365 /_   87.4     1.023    12.470        3-1      12.75 /_  117.4    1.0225
MDV201_796USD_INT ............ 1       7.3539 /_  -32.6    1.0214    12.470        1-2     12.745 /_   -2.8     1.022
   -                           2       7.3431 /_ -152.9    1.0199    12.470        2-3     12.717 /_ -122.7    1.0198
   -                           3       7.3646 /_   87.4    1.0229    12.470        3-1     12.749 /_  117.4    1.0224
28262 ........................ 3       7.2414 /_   86.2    1.0058    12.470
28263 ........................ 3       7.2414 /_   86.2    1.0058    12.470
52519 ........................ 2       7.0828 /_ -154.5   0.98378    12.470
52521 ........................ 2       7.0824 /_ -154.5   0.98372    12.470
28199 ........................ 1       7.2268 /_  -33.3    1.0038    12.470        1-2     12.556 /_   -3.7    1.0069
   -                           2       7.2258 /_ -154.0    1.0036    12.470        2-3     12.552 /_ -123.6    1.0066
   -                           3       7.2992 /_   86.5    1.0138    12.470        3-1     12.568 /_  116.4    1.0078
28196 ........................ 1       7.2268 /_  -33.3    1.0038    12.470        1-2     12.555 /_   -3.7    1.0069
   -                           2       7.2258 /_ -154.0    1.0036    12.470        2-3     12.552 /_ -123.6    1.0065
   -                           3       7.2991 /_   86.5    1.0138    12.470        3-1     12.567 /_  116.4    1.0078
28264 ........................ 3       7.2415 /_   86.2    1.0058    12.470
28229 ........................ 3        7.303 /_   86.5    1.0144    12.470
52531 ........................ 3       7.3028 /_   86.5    1.0143    12.470
14870 ........................ 1       7.2462 /_  -33.3    1.0065    12.470
46398 ........................ 3       7.1775 /_   86.0   0.99694    12.470
46399 ........................ 3       7.1758 /_   86.0    0.9967    12.470
62264 ........................ 1        7.217 /_  -33.6    1.0024    12.470        1-2      12.51 /_   -3.6    1.0032
   -                           2       7.2239 /_ -153.7    1.0034    12.470        2-3     12.515 /_ -123.8    1.0036
   -                           3       7.2152 /_   86.2    1.0022    12.470        3-1     12.484 /_  116.3    1.0011
106895 ....................... 2       7.2239 /_ -153.7    1.0034    12.470
1163442 ...................... 3       7.2124 /_   86.1    1.0018    12.470
MDV201_1163443ELB_INT ........ 3       7.2124 /_   86.1    1.0018    12.470
1163443 ...................... 3       7.2124 /_   86.1    1.0018    12.470
99420 ........................ 1       7.1902 /_  -33.8    0.9987    12.470        1-2     12.481 /_   -3.7    1.0009
   -                           2       7.2231 /_ -153.7    1.0033    12.470        2-3     12.501 /_ -123.8    1.0025
   -                           3       7.2045 /_   86.2    1.0007    12.470        3-1     12.461 /_  116.2   0.99927
14828 ........................ 1       7.2331 /_  -33.0    1.0047    12.470        1-2     12.542 /_   -3.9    1.0057
   -                           2       7.1561 /_ -154.3   0.99396    12.470        2-3     12.501 /_ -123.6    1.0025
   -                           3       7.3253 /_   86.3    1.0175    12.470        3-1     12.567 /_  116.4    1.0078
1144249 ...................... 3       7.3253 /_   86.3    1.0175    12.470
63726 ........................ 1        7.245 /_  -33.3    1.0063    12.470
8134 ......................... 1        7.216 /_  -33.4    1.0023    12.470
8131 ......................... 1       7.2156 /_  -33.4    1.0022    12.470
62232 ........................ 3       7.2146 /_   86.1    1.0021    12.470
62234 ........................ 3       7.2139 /_   86.1     1.002    12.470
841 .......................... 1       7.1989 /_  -33.3   0.99991    12.470        1-2       12.5 /_   -3.8    1.0024
   -                           2       7.1792 /_ -154.1   0.99718    12.470        2-3     12.494 /_ -123.6    1.0019
   -                           3       7.2824 /_   86.4    1.0115    12.470        3-1     12.523 /_  116.3    1.0042
8083 ......................... 1       7.1953 /_  -33.3    0.9994    12.470        1-2     12.494 /_   -3.8    1.0019
   -                           2        7.175 /_ -154.1   0.99659    12.470        2-3     12.489 /_ -123.6    1.0015
   -                           3       7.2827 /_   86.4    1.0115    12.470        3-1      12.52 /_  116.3     1.004
39579 ........................ 2        7.102 /_ -154.4   0.98645    12.470
52518 ........................ 2       7.0994 /_ -154.4   0.98608    12.470
782 .......................... 1       7.3312 /_  -32.7    1.0183    12.470        1-2      12.71 /_   -2.9    1.0193
   -                           2       7.3217 /_ -153.1     1.017    12.470        2-3     12.687 /_ -122.8    1.0174
   -                           3       7.3518 /_   87.3    1.0211    12.470        3-1     12.716 /_  117.2    1.0197
783 .......................... 1       7.3245 /_  -32.8    1.0174    12.470        1-2       12.7 /_   -3.0    1.0184
   -                           2       7.3152 /_ -153.1    1.0161    12.470        2-3     12.678 /_ -122.9    1.0167
   -                           3       7.3484 /_   87.2    1.0207    12.470        3-1     12.706 /_  117.1    1.0189
8132 ......................... 1       7.2146 /_  -33.4    1.0021    12.470
8133 ......................... 1       7.2146 /_  -33.4    1.0021    12.470
MDV201_C_1P032_1160490_INT ... 1       7.1753 /_  -33.3   0.99663    12.470
1160490 ...................... 1       7.1753 /_  -33.3   0.99663    12.470
100477 ....................... 3       7.3149 /_   86.3     1.016    12.470
28274 ........................ 3       7.3147 /_   86.3     1.016    12.470
63677 ........................ 1       7.2444 /_  -33.2    1.0062    12.470
63676 ........................ 1       7.2442 /_  -33.2    1.0062    12.470
102184 ....................... 3       7.2365 /_   86.2    1.0051    12.470
28266 ........................ 3       7.2365 /_   86.2    1.0051    12.470
39772 ........................ 3       7.2318 /_   86.2    1.0045    12.470
39773 ........................ 3       7.2317 /_   86.2    1.0045    12.470
28241 ........................ 1       7.2389 /_  -33.3    1.0055    12.470
28238 ........................ 1       7.2381 /_  -33.3    1.0053    12.470
848 .......................... 2       7.1676 /_ -154.2   0.99556    12.470
1144260 ...................... 2       7.1676 /_ -154.2   0.99556    12.470
8095 ......................... 3       7.2778 /_   86.4    1.0109    12.470
8098 ......................... 3       7.2776 /_   86.4    1.0108    12.470
849 .......................... 2        7.164 /_ -154.2   0.99506    12.470
850 .......................... 2       7.1632 /_ -154.2   0.99495    12.470
63714 ........................ 1       7.2449 /_  -33.4    1.0063    12.470        1-2     12.562 /_   -3.5    1.0074
   -                           2       7.2393 /_ -153.7    1.0055    12.470        2-3     12.557 /_ -123.6    1.0069
   -                           3       7.2644 /_   86.4     1.009    12.470        3-1     12.551 /_  116.5    1.0065
63711 ........................ 1       7.2421 /_  -33.4    1.0059    12.470        1-2     12.555 /_   -3.5    1.0068
   -                           2       7.2364 /_ -153.7    1.0051    12.470        2-3      12.55 /_ -123.6    1.0064
   -                           3       7.2561 /_   86.4    1.0079    12.470        3-1      12.54 /_  116.4    1.0056
1160484 ...................... 2        7.019 /_ -154.4   0.97492    12.470
1160485 ...................... 2       7.0187 /_ -154.4   0.97488    12.470
8127 ......................... 1       7.2153 /_  -33.4    1.0022    12.470
8128 ......................... 1        7.215 /_  -33.4    1.0021    12.470
8119 ......................... 1       7.1913 /_  -33.4   0.99885    12.470
8117 ......................... 1       7.1911 /_  -33.4   0.99883    12.470
63709 ........................ 1       7.2422 /_  -33.3    1.0059    12.470
63710 ........................ 1        7.242 /_  -33.3    1.0059    12.470
21654 ........................ 1       7.2209 /_  -33.4     1.003    12.470
21653 ........................ 1       7.2198 /_  -33.4    1.0028    12.470
63708 ........................ 3       7.2991 /_   86.4    1.0138    12.470
63703 ........................ 3       7.2983 /_   86.4    1.0137    12.470
58411 ........................ 1       7.1841 /_  -33.8   0.99785    12.470        1-2     12.457 /_   -3.7   0.99897
   -                           2        7.204 /_ -153.8    1.0006    12.470        2-3     12.474 /_ -123.9    1.0003
   -                           3       7.1807 /_   86.0   0.99738    12.470        3-1     12.427 /_  116.1   0.99654
106254 ....................... 1       7.1841 /_  -33.8   0.99785    12.470
1012405 ...................... 3       7.2557 /_   86.2    1.0078    12.470
1012407 ...................... 3       7.2556 /_   86.2    1.0078    12.470
810 .......................... 1       7.2349 /_  -33.3    1.0049    12.470        1-2     12.563 /_   -3.7    1.0075
   -                           2       7.2238 /_ -154.0    1.0034    12.470        2-3     12.554 /_ -123.6    1.0068
   -                           3       7.3038 /_   86.5    1.0145    12.470        3-1     12.576 /_  116.4    1.0085
1010731 ...................... 1       7.2339 /_  -33.3    1.0048    12.470        1-2     12.562 /_   -3.7    1.0074
   -                           2        7.224 /_ -154.0    1.0034    12.470        2-3     12.553 /_ -123.6    1.0067
   -                           3       7.3024 /_   86.5    1.0143    12.470        3-1     12.574 /_  116.4    1.0083
39745 ........................ 3       7.1475 /_   85.9   0.99277    12.470
74453 ........................ 3       7.1467 /_   85.9   0.99265    12.470
6580 ......................... 1       7.1918 /_  -33.7   0.99892    12.470        1-2     12.483 /_   -3.7     1.001
   -                           2       7.2232 /_ -153.7    1.0033    12.470        2-3     12.502 /_ -123.8    1.0026
   -                           3       7.2052 /_   86.2    1.0008    12.470        3-1     12.462 /_  116.2   0.99939
6582 ......................... 1       7.1903 /_  -33.8   0.99872    12.470        1-2     12.481 /_   -3.7    1.0009
   -                           2       7.2231 /_ -153.7    1.0033    12.470        2-3     12.501 /_ -123.8    1.0025
   -                           3       7.2046 /_   86.2    1.0007    12.470        3-1     12.461 /_  116.2   0.99928
1012412 ...................... 3       7.2555 /_   86.2    1.0078    12.470
69622 ........................ 2       7.0898 /_ -154.4   0.98476    12.470
69620 ........................ 2       7.0882 /_ -154.5   0.98454    12.470
63654 ........................ 1       7.2621 /_  -33.2    1.0087    12.470        1-2     12.599 /_   -3.5    1.0104
   -                           2       7.2527 /_ -153.7    1.0074    12.470        2-3     12.589 /_ -123.4    1.0095
   -                           3       7.3033 /_   86.6    1.0144    12.470        3-1     12.602 /_  116.6    1.0106
14891 ........................ 1       7.2581 /_  -33.2    1.0081    12.470        1-2     12.591 /_   -3.5    1.0097
   -                           2         7.25 /_ -153.7     1.007    12.470        2-3     12.582 /_ -123.5     1.009
   -                           3        7.295 /_   86.6    1.0133    12.470        3-1     12.591 /_  116.6    1.0097
56756 ........................ 2       7.0259 /_ -154.4   0.97588    12.470
1103250 ...................... 2       7.0259 /_ -154.4   0.97588    12.470
6581 ......................... 2       7.0263 /_ -154.4   0.97594    12.470
14876 ........................ 3       7.2991 /_   86.4    1.0138    12.470
14872 ........................ 3        7.299 /_   86.4    1.0138    12.470
1144245 ...................... 2       7.1242 /_ -154.4   0.98954    12.470
62301 ........................ 2       7.1242 /_ -154.4   0.98953    12.470
806 .......................... 2       7.2298 /_ -153.8    1.0042    12.470
809 .......................... 2       7.2283 /_ -153.8     1.004    12.470
28248 ........................ 1       7.2389 /_  -33.3    1.0055    12.470
28242 ........................ 1       7.2387 /_  -33.3    1.0054    12.470
74420 ........................ 1       7.1804 /_  -33.8   0.99733    12.470        1-2     12.463 /_   -3.7    0.9994
   -                           2       7.2118 /_ -153.8    1.0017    12.470        2-3     12.484 /_ -123.9    1.0011
   -                           3       7.1932 /_   86.1   0.99911    12.470        3-1     12.441 /_  116.1   0.99765
74428 ........................ 1       7.1805 /_  -33.8   0.99736    12.470        1-2     12.462 /_   -3.7   0.99935
   -                           2       7.2107 /_ -153.8    1.0015    12.470        2-3     12.482 /_ -123.9     1.001
   -                           3       7.1924 /_   86.1     0.999    12.470        3-1      12.44 /_  116.1   0.99756
14831 ........................ 3       7.3235 /_   86.3    1.0172    12.470
14833 ........................ 3       7.3204 /_   86.3    1.0168    12.470
28251 ........................ 1       7.2415 /_  -33.3    1.0058    12.470
   -                           3       7.3057 /_   86.5    1.0147    12.470        3-1     12.586 /_  116.5    1.0093
14893 ........................ 1       7.2399 /_  -33.3    1.0056    12.470
   -                           3       7.3056 /_   86.5    1.0147    12.470        3-1     12.585 /_  116.5    1.0092
74456 ........................ 3        7.168 /_   86.0   0.99561    12.470
46407 ........................ 3       7.1643 /_   86.0    0.9951    12.470
94736 ........................ 1       7.1478 /_  -33.3   0.99282    12.470
94737 ........................ 1       7.1477 /_  -33.3    0.9928    12.470
89779 ........................ 3       7.2543 /_   86.2    1.0076    12.470
89780 ........................ 3       7.2541 /_   86.2    1.0076    12.470
100480 ....................... 3       7.2996 /_   86.4    1.0139    12.470
1000988 ...................... 1       7.1931 /_  -33.3   0.99911    12.470
1000987 ...................... 1       7.1931 /_  -33.3    0.9991    12.470
28287 ........................ 1       7.1544 /_  -33.3   0.99373    12.470        1-2      12.41 /_   -3.9   0.99515
   -                           2       7.1034 /_ -154.3   0.98664    12.470        2-3     12.398 /_ -123.7   0.99419
   -                           3       7.2519 /_   86.2    1.0073    12.470        3-1     12.448 /_  116.2   0.99822
28288 ........................ 1       7.1547 /_  -33.3   0.99378    12.470        1-2     12.409 /_   -3.9   0.99514
   -                           2        7.103 /_ -154.3   0.98659    12.470        2-3     12.397 /_ -123.7   0.99413
   -                           3       7.2507 /_   86.2    1.0071    12.470        3-1     12.447 /_  116.2   0.99814
MDV201_1010732USD_INT ........ 1       7.2338 /_  -33.3    1.0048    12.470        1-2     12.562 /_   -3.7    1.0074
   -                           2        7.224 /_ -154.0    1.0034    12.470        2-3     12.553 /_ -123.6    1.0067
   -                           3       7.3023 /_   86.5    1.0143    12.470        3-1     12.574 /_  116.4    1.0083
1010732 ...................... 1       7.2338 /_  -33.3    1.0048    12.470        1-2     12.562 /_   -3.7    1.0074
   -                           2        7.224 /_ -154.0    1.0034    12.470        2-3     12.553 /_ -123.6    1.0067
   -                           3       7.3023 /_   86.5    1.0143    12.470        3-1     12.574 /_  116.4    1.0083
28226 ........................ 1       7.2441 /_  -33.2    1.0062    12.470        1-2     12.573 /_   -3.6    1.0082
   -                           2       7.2232 /_ -153.9    1.0033    12.470        2-3     12.558 /_ -123.6    1.0071
   -                           3       7.3062 /_   86.5    1.0148    12.470        3-1     12.582 /_  116.5     1.009
1144262 ...................... 3       7.3062 /_   86.5    1.0148    12.470
1127424 ...................... 1       7.1629 /_  -33.3   0.99491    12.470        1-2     12.442 /_   -3.9   0.99776
   -                           2       7.1333 /_ -154.3    0.9908    12.470        2-3     12.442 /_ -123.6   0.99774
   -                           3       7.2809 /_   86.3    1.0113    12.470        3-1     12.488 /_  116.2    1.0014
56751 ........................ 1       7.1833 /_  -33.8   0.99775    12.470        1-2     12.473 /_   -3.7    1.0002
   -                           2       7.2217 /_ -153.8    1.0031    12.470        2-3     12.496 /_ -123.8    1.0021
   -                           3        7.201 /_   86.2    1.0002    12.470        3-1     12.454 /_  116.1    0.9987
56762 ........................ 1       7.1815 /_  -33.8   0.99749    12.470        1-2      12.47 /_   -3.7         1
   -                           2       7.2211 /_ -153.8     1.003    12.470        2-3     12.495 /_ -123.9     1.002
   -                           3       7.1998 /_   86.1         1    12.470        3-1     12.452 /_  116.1   0.99853
6572 ......................... 2       7.0542 /_ -154.4   0.97981    12.470
1144253 ...................... 2       7.0542 /_ -154.4    0.9798    12.470
28282 ........................ 1       7.1538 /_  -33.3   0.99365    12.470
28281 ........................ 1       7.1532 /_  -33.3   0.99357    12.470
94747 ........................ 1       7.1474 /_  -33.3   0.99275    12.470
39588 ........................ 2       7.0823 /_ -154.5   0.98371    12.470
39621 ........................ 2       7.1556 /_ -154.2   0.99389    12.470
1010738 ...................... 1        7.181 /_  -33.3   0.99743    12.470
8143 ......................... 1       7.1801 /_  -33.3    0.9973    12.470
1017349 ...................... 2       7.0253 /_ -154.4   0.97579    12.470
63680 ........................ 1       7.2478 /_  -33.3    1.0067    12.470        1-2     12.582 /_   -3.6    1.0089
   -                           2       7.2356 /_ -153.9     1.005    12.470        2-3     12.571 /_ -123.5    1.0081
   -                           3       7.3081 /_   86.5    1.0151    12.470        3-1     12.591 /_  116.5    1.0097
63681 ........................ 1       7.2467 /_  -33.3    1.0065    12.470        1-2     12.579 /_   -3.6    1.0088
   -                           2       7.2329 /_ -153.9    1.0046    12.470        2-3     12.568 /_ -123.5    1.0079
   -                           3       7.3076 /_   86.5     1.015    12.470        3-1     12.589 /_  116.5    1.0095
58431 ........................ 1       7.1848 /_  -33.8   0.99794    12.470        1-2     12.458 /_   -3.7   0.99903
   -                           2       7.2037 /_ -153.8    1.0006    12.470        2-3     12.474 /_ -123.9    1.0003
   -                           3       7.1811 /_   86.0   0.99743    12.470        3-1     12.427 /_  116.1   0.99658
106259 ....................... 3       7.1811 /_   86.0   0.99743    12.470
823 .......................... 1       7.2333 /_  -33.3    1.0047    12.470        1-2     12.561 /_   -3.7    1.0073
   -                           2       7.2242 /_ -154.0    1.0034    12.470        2-3     12.553 /_ -123.6    1.0067
   -                           3       7.3016 /_   86.5    1.0142    12.470        3-1     12.573 /_  116.4    1.0083
39618 ........................ 2       7.1553 /_ -154.2   0.99385    12.470
1140226 ...................... 3       7.3006 /_   86.4     1.014    12.470
94731 ........................ 3       7.3004 /_   86.4     1.014    12.470
28186 ........................ 1       7.2266 /_  -33.3    1.0038    12.470        1-2     12.555 /_   -3.7    1.0068
   -                           2       7.2256 /_ -154.0    1.0036    12.470        2-3     12.551 /_ -123.6    1.0065
   -                           3        7.299 /_   86.5    1.0138    12.470        3-1     12.567 /_  116.4    1.0078
854 .......................... 1       7.2266 /_  -33.3    1.0038    12.470        1-2     12.555 /_   -3.7    1.0068
   -                           2       7.2256 /_ -154.0    1.0036    12.470        2-3     12.551 /_ -123.6    1.0065
   -                           3        7.299 /_   86.5    1.0138    12.470        3-1     12.567 /_  116.4    1.0078
28284 ........................ 1       7.1544 /_  -33.3   0.99373    12.470        1-2      12.41 /_   -3.9   0.99522
   -                           2       7.1037 /_ -154.3   0.98669    12.470        2-3     12.399 /_ -123.7   0.99431
   -                           3       7.2541 /_   86.2    1.0076    12.470        3-1      12.45 /_  116.2   0.99839
28286 ........................ 1       7.1544 /_  -33.3   0.99373    12.470        1-2      12.41 /_   -3.9    0.9952
   -                           2       7.1036 /_ -154.3   0.98667    12.470        2-3     12.399 /_ -123.7   0.99428
   -                           3       7.2534 /_   86.2    1.0075    12.470        3-1     12.449 /_  116.2   0.99834
8090 ......................... 1       7.1973 /_  -33.3   0.99968    12.470
   -                           3       7.2795 /_   86.4    1.0111    12.470        3-1     12.519 /_  116.3    1.0039
8092 ......................... 1        7.196 /_  -33.3    0.9995    12.470
808 .......................... 1       7.2915 /_  -33.0    1.0128    12.470
814 .......................... 1       7.2908 /_  -33.0    1.0127    12.470
14829 ........................ 2       7.1468 /_ -154.3   0.99267    12.470
830 .......................... 3       7.2781 /_   86.4    1.0109    12.470
831 .......................... 3       7.2766 /_   86.4    1.0107    12.470
1008229 ...................... 2       7.1334 /_ -154.3   0.99082    12.470
1008227 ...................... 2       7.1334 /_ -154.3    0.9908    12.470
28189 ........................ 1       7.2267 /_  -33.3    1.0038    12.470        1-2     12.555 /_   -3.7    1.0068
   -                           2       7.2256 /_ -154.0    1.0036    12.470        2-3     12.552 /_ -123.6    1.0065
   -                           3       7.2991 /_   86.5    1.0138    12.470        3-1     12.567 /_  116.4    1.0078
785 .......................... 1       7.2948 /_  -33.0    1.0132    12.470
790 .......................... 1       7.2935 /_  -33.0     1.013    12.470
1160477 ...................... 2       7.0201 /_ -154.4   0.97507    12.470
MDV201_15005ELB_INT .......... 2         7.02 /_ -154.4   0.97507    12.470
1149717 ...................... 1       7.1798 /_  -33.8   0.99725    12.470        1-2     12.465 /_   -3.7   0.99959
   -                           2       7.2159 /_ -153.8    1.0023    12.470        2-3     12.488 /_ -123.9    1.0015
   -                           3       7.1961 /_   86.1   0.99952    12.470        3-1     12.445 /_  116.1     0.998
8205 ......................... 2       7.0247 /_ -154.4   0.97572    12.470
8204 ......................... 2       7.0247 /_ -154.4   0.97571    12.470
802 .......................... 2       7.2337 /_ -153.8    1.0047    12.470
804 .......................... 2       7.2334 /_ -153.8    1.0047    12.470
94733 ........................ 2        7.085 /_ -154.5   0.98409    12.470
94734 ........................ 2       7.0849 /_ -154.5   0.98408    12.470
14875 ........................ 1       7.2402 /_  -33.2    1.0056    12.470
1012406 ...................... 3       7.2572 /_   86.2     1.008    12.470
39764 ........................ 1       7.2065 /_  -33.7     1.001    12.470        1-2     12.499 /_   -3.6    1.0023
   -                           2       7.2237 /_ -153.7    1.0033    12.470        2-3      12.51 /_ -123.8    1.0032
   -                           3       7.2111 /_   86.2    1.0016    12.470        3-1     12.475 /_  116.2    1.0004
15011 ........................ 1        7.201 /_  -33.7    1.0002    12.470        1-2     12.493 /_   -3.7    1.0018
   -                           2       7.2235 /_ -153.7    1.0033    12.470        2-3     12.507 /_ -123.8     1.003
   -                           3       7.2089 /_   86.2    1.0013    12.470        3-1      12.47 /_  116.2         1
8087 ......................... 3       7.2794 /_   86.4    1.0111    12.470
855 .......................... 3        7.278 /_   86.4    1.0109    12.470
69623 ........................ 1       7.1538 /_  -33.3   0.99365    12.470        1-2     12.413 /_   -3.9   0.99543
   -                           2       7.1053 /_ -154.4   0.98691    12.470        2-3     12.405 /_ -123.7   0.99479
   -                           3        7.263 /_   86.3    1.0088    12.470        3-1     12.458 /_  116.2   0.99907
108027 ....................... 3        7.263 /_   86.3    1.0088    12.470
63638 ........................ 1       7.2982 /_  -33.0    1.0137    12.470        1-2      12.66 /_   -3.2    1.0152
   -                           2       7.2902 /_ -153.4    1.0126    12.470        2-3     12.643 /_ -123.1    1.0139
   -                           3       7.3342 /_   87.0    1.0187    12.470        3-1     12.667 /_  116.9    1.0158
1010727 ...................... 1       7.2982 /_  -33.0    1.0137    12.470
39763 ........................ 1       7.2076 /_  -33.7    1.0011    12.470        1-2       12.5 /_   -3.6    1.0024
   -                           2       7.2237 /_ -153.7    1.0034    12.470        2-3      12.51 /_ -123.8    1.0032
   -                           3       7.2115 /_   86.2    1.0017    12.470        3-1     12.476 /_  116.2    1.0005
39762 ........................ 1       7.2076 /_  -33.7    1.0011    12.470        1-2       12.5 /_   -3.6    1.0024
   -                           2       7.2237 /_ -153.7    1.0034    12.470        2-3      12.51 /_ -123.8    1.0032
   -                           3       7.2115 /_   86.2    1.0017    12.470        3-1     12.476 /_  116.2    1.0005
89785 ........................ 3        7.254 /_   86.2    1.0076    12.470
1145433 ...................... 3        7.254 /_   86.2    1.0076    12.470
8108 ......................... 3       7.2775 /_   86.4    1.0108    12.470
14881 ........................ 1       7.2366 /_  -33.3    1.0051    12.470
14878 ........................ 1       7.2365 /_  -33.3    1.0051    12.470
69485 ........................ 2        7.133 /_ -154.3   0.99076    12.470
69488 ........................ 2       7.1329 /_ -154.3   0.99074    12.470
1160482 ...................... 2       7.0184 /_ -154.4   0.97483    12.470
1160487 ...................... 2       7.0181 /_ -154.4    0.9748    12.470
8169 ......................... 2       7.2326 /_ -153.7    1.0046    12.470
8168 ......................... 2       7.2324 /_ -153.7    1.0046    12.470
1163438 ...................... 3       7.2124 /_   86.1    1.0018    12.470
MDV201_1163441ELB_INT ........ 3       7.2124 /_   86.1    1.0018    12.470
1163441 ...................... 3       7.2124 /_   86.1    1.0018    12.470
14851 ........................ 2       7.2438 /_ -153.7    1.0061    12.470
14852 ........................ 2       7.2437 /_ -153.7    1.0061    12.470
1160496 ...................... 1       7.1662 /_  -33.3   0.99536    12.470
MDV201_8082ELB_INT ........... 1       7.1662 /_  -33.3   0.99536    12.470
8082 ......................... 1       7.1662 /_  -33.3   0.99536    12.470
14848 ........................ 3       7.2998 /_   86.4    1.0139    12.470
14871 ........................ 3       7.2996 /_   86.4    1.0139    12.470
1144267 ...................... 2       7.2238 /_ -154.0    1.0034    12.470
1144266 ...................... 2       7.2235 /_ -154.0    1.0033    12.470
28297 ........................ 3       7.3178 /_   86.3    1.0164    12.470
28298 ........................ 3       7.3164 /_   86.3    1.0162    12.470
69626 ........................ 3       7.2629 /_   86.3    1.0088    12.470
46400 ........................ 3       7.1758 /_   86.0   0.99669    12.470
46402 ........................ 3       7.1757 /_   86.0   0.99668    12.470
63684 ........................ 1       7.2455 /_  -33.2    1.0064    12.470        1-2     12.577 /_   -3.6    1.0086
   -                           2       7.2296 /_ -153.9    1.0042    12.470        2-3     12.564 /_ -123.5    1.0076
   -                           3       7.3071 /_   86.5    1.0149    12.470        3-1     12.586 /_  116.5    1.0093
1144263 ...................... 1       7.2455 /_  -33.2    1.0064    12.470
1144261 ...................... 3       7.2818 /_   86.4    1.0114    12.470
833 .......................... 3       7.2795 /_   86.4    1.0111    12.470
39615 ........................ 2        7.161 /_ -154.2   0.99464    12.470
39616 ........................ 2       7.1609 /_ -154.2   0.99463    12.470
39611 ........................ 1       7.1587 /_  -33.3   0.99433    12.470        1-2     12.433 /_   -3.9     0.997
   -                           2       7.1248 /_ -154.3   0.98962    12.470        2-3     12.432 /_ -123.6   0.99697
   -                           3       7.2786 /_   86.3     1.011    12.470        3-1     12.481 /_  116.2    1.0009
103731 ....................... 1       7.1587 /_  -33.3   0.99433    12.470
1160500 ...................... 1       7.1753 /_  -33.3   0.99664    12.470
1160501 ...................... 1       7.1753 /_  -33.3   0.99663    12.470
792 .......................... 2       7.2327 /_ -153.8    1.0046    12.470
799 .......................... 2       7.2326 /_ -153.8    1.0046    12.470
28293 ........................ 3       7.2976 /_   86.4    1.0136    12.470
28294 ........................ 3       7.2974 /_   86.4    1.0136    12.470
1000985 ...................... 1       7.1931 /_  -33.3   0.99911    12.470
1000986 ...................... 1       7.1926 /_  -33.3   0.99903    12.470
8110 ......................... 3        7.299 /_   86.5    1.0138    12.470
8114 ......................... 3       7.2986 /_   86.5    1.0138    12.470
103729 ....................... 2       7.1098 /_ -154.4   0.98754    12.470
39584 ........................ 2       7.1079 /_ -154.4   0.98728    12.470
56781 ........................ 1         7.18 /_  -33.8   0.99729    12.470        1-2     12.464 /_   -3.7    0.9995
   -                           2       7.2139 /_ -153.8     1.002    12.470        2-3     12.486 /_ -123.9    1.0013
   -                           3       7.1948 /_   86.1   0.99933    12.470        3-1     12.443 /_  116.1   0.99784
1160504 ...................... 1       7.1754 /_  -33.3   0.99665    12.470
1160505 ...................... 1       7.1753 /_  -33.3   0.99662    12.470
62236 ........................ 3       7.2158 /_   86.2    1.0023    12.470
62237 ........................ 3       7.2125 /_   86.1    1.0018    12.470
103728 ....................... 1       7.1539 /_  -33.3   0.99366    12.470
39590 ........................ 1       7.1527 /_  -33.3   0.99349    12.470
MDV201_15008ELB_INT .......... 2       7.0225 /_ -154.4   0.97541    12.470
15008 ........................ 2       7.0225 /_ -154.4   0.97541    12.470
39599 ........................ 2         7.12 /_ -154.3   0.98896    12.470
39600 ........................ 2         7.12 /_ -154.3   0.98896    12.470
8162 ......................... 2       7.2334 /_ -153.7    1.0047    12.470
44580 ........................ 2        7.233 /_ -153.7    1.0046    12.470
28233 ........................ 3       7.3038 /_   86.5    1.0145    12.470
28228 ........................ 3       7.3034 /_   86.5    1.0144    12.470
816 .......................... 2       7.2265 /_ -153.8    1.0037    12.470
826 .......................... 2       7.2264 /_ -153.8    1.0037    12.470
1160462 ...................... 1       7.1651 /_  -33.3   0.99522    12.470
39576 ........................ 1       7.1536 /_  -33.3   0.99362    12.470        1-2     12.416 /_   -3.9    0.9957
   -                           2       7.1074 /_ -154.4    0.9872    12.470        2-3     12.412 /_ -123.7   0.99533
   -                           3       7.2722 /_   86.3    1.0101    12.470        3-1     12.467 /_  116.2    0.9998
52517 ........................ 1       7.1536 /_  -33.3   0.99362    12.470        1-2     12.416 /_   -3.9   0.99563
   -                           2       7.1065 /_ -154.4   0.98708    12.470        2-3      12.41 /_ -123.7   0.99521
   -                           3       7.2708 /_   86.3    1.0099    12.470        3-1     12.466 /_  116.2   0.99968
788 .......................... 1       7.3392 /_  -32.7    1.0194    12.470        1-2     12.722 /_   -2.9    1.0202
   -                           2       7.3295 /_ -153.0     1.018    12.470        2-3     12.698 /_ -122.8    1.0183
   -                           3       7.3558 /_   87.3    1.0217    12.470        3-1     12.728 /_  117.3    1.0207
94739 ........................ 1       7.1476 /_  -33.3   0.99278    12.470
94742 ........................ 1       7.1474 /_  -33.3   0.99276    12.470
106882 ....................... 2       7.2266 /_ -153.6    1.0038    12.470
38389 ........................ 2       7.2265 /_ -153.6    1.0037    12.470
63669 ........................ 3       7.2734 /_   86.3    1.0103    12.470
63670 ........................ 3       7.2734 /_   86.3    1.0103    12.470
8101 ......................... 1       7.1754 /_  -33.3   0.99665    12.470
MDV201_1160504ELB_INT ........ 1       7.1754 /_  -33.3   0.99665    12.470
1010728 ...................... 1       7.2924 /_  -33.0    1.0129    12.470
28222 ........................ 3       7.3046 /_   86.4    1.0146    12.470
28223 ........................ 3       7.3039 /_   86.4    1.0145    12.470
94728 ........................ 2       7.0968 /_ -154.4   0.98572    12.470
94740 ........................ 2       7.0943 /_ -154.4   0.98538    12.470
8079 ......................... 1        7.181 /_  -33.3   0.99743    12.470        1-2     12.474 /_   -3.8    1.0003
   -                           2       7.1624 /_ -154.2   0.99484    12.470        2-3     12.474 /_ -123.6    1.0003
   -                           3        7.282 /_   86.4    1.0115    12.470        3-1     12.508 /_  116.3     1.003
8078 ......................... 1       7.1783 /_  -33.3   0.99705    12.470        1-2     12.469 /_   -3.8   0.99996
   -                           2        7.159 /_ -154.2   0.99437    12.470        2-3      12.47 /_ -123.6         1
   -                           3       7.2816 /_   86.4    1.0114    12.470        3-1     12.505 /_  116.3    1.0028
1012411 ...................... 3       7.2557 /_   86.2    1.0078    12.470
1012408 ...................... 3       7.2557 /_   86.2    1.0078    12.470
1160458 ...................... 1       7.1791 /_  -33.3   0.99716    12.470
62242 ........................ 1       7.2235 /_  -33.6    1.0033    12.470        1-2     12.518 /_   -3.6    1.0038
   -                           2       7.2247 /_ -153.7    1.0035    12.470        2-3     12.519 /_ -123.8    1.0039
   -                           3       7.2174 /_   86.2    1.0025    12.470        3-1     12.489 /_  116.3    1.0016
1144243 ...................... 3       7.2995 /_   86.5    1.0139    12.470
69621 ........................ 2       7.0921 /_ -154.4   0.98507    12.470
...